Test/data3.m
bus = [
    1.0000    1.0100         0         0         0    3.0000
    2.0000    1.0000         0         0         0    1.0000
    3.0000    1.0000         0  -1.250000   -0.700000    1.0000
    4.0000    1.0000         0  -0.900000   -0.400000    1.0000
    5.0000    1.0000         0  -1.000000   -0.550000    1.0000
    6.0000    1.0000         0  -0.350000   -0.100000    1.0000
    7.0000    1.0100         0  1.630000         0    2.0000
    8.0000    1.0000         0         0         0    1.0000
    9.0000    1.0100         0  0.850000         0    2.0000
    ]
line = [
    2.0000    3.0000    0.0100    0.0850         0    0.0440         0
    2.0000    4.0000    0.0170    0.0920         0    0.0395         0
    3.0000    6.0000    0.0320    0.1610         0    0.0765         0
    4.0000    8.0000    0.0390    0.1700         0    0.0895         0
    6.0000    5.0000    0.0085    0.0720         0    0.0372         0
    5.0000    8.0000    0.0119    0.1008         0    0.0522         0
    1.0000    2.0000         0    0.0567         0         0    1.0522
    7.0000    6.0000         0    0.0625         0         0    1.0522
    9.0000    8.0000         0    0.0586         0         0    1.0522
    ]